Version 4
SHEET 1 1740 1112
WIRE 448 48 432 48
WIRE 672 48 448 48
WIRE 688 48 672 48
WIRE 896 48 688 48
WIRE 912 48 896 48
WIRE 1232 48 912 48
WIRE 496 96 448 48
WIRE 736 96 688 48
WIRE 960 96 912 48
WIRE 1232 144 1232 48
WIRE 672 192 672 48
WIRE 736 192 736 176
WIRE 736 192 720 192
WIRE 896 192 896 48
WIRE 960 192 960 176
WIRE 960 192 944 192
WIRE 432 208 432 48
WIRE 496 208 496 176
WIRE 496 208 480 208
WIRE 432 288 432 272
WIRE 432 288 64 288
WIRE 672 320 672 256
WIRE 672 320 192 320
WIRE 1232 336 1232 224
WIRE 896 352 896 256
WIRE 896 352 320 352
WIRE 64 416 64 288
WIRE 192 416 192 320
WIRE 320 416 320 352
WIRE 192 496 64 496
WIRE 320 496 192 496
WIRE 432 496 432 288
WIRE 464 496 432 496
WIRE 672 496 672 320
WIRE 704 496 672 496
WIRE 896 496 896 352
WIRE 928 496 896 496
WIRE 192 528 192 496
WIRE 768 528 704 496
WIRE 992 528 928 496
WIRE 512 544 464 496
WIRE 432 656 432 496
WIRE 512 656 512 624
WIRE 512 656 480 656
WIRE 672 656 672 496
WIRE 768 656 768 608
WIRE 768 656 720 656
WIRE 896 672 896 496
WIRE 992 672 992 608
WIRE 992 672 944 672
WIRE 432 768 432 720
WIRE 672 768 672 720
WIRE 672 768 432 768
WIRE 896 768 896 736
WIRE 896 768 672 768
WIRE 1104 768 896 768
WIRE 1232 768 1232 416
WIRE 1232 768 1104 768
WIRE 1104 816 1104 768
FLAG 1104 816 0
FLAG 192 528 0
SYMBOL voltage 64 400 R0
WINDOW 3 -251 -54 Left 2
WINDOW 123 0 0 Left 0
WINDOW 39 0 0 Left 0
SYMATTR Value SINE(0 220 50 0 0 0)
SYMATTR InstName V1
SYMBOL voltage 192 400 R0
WINDOW 3 -471 -12 Left 2
SYMATTR Value SINE(0 220 50 0 0 120)
SYMATTR InstName V2
SYMBOL voltage 320 400 R0
WINDOW 3 -596 35 Left 2
SYMATTR Value SINE(0 220 50 0 0 240)
SYMATTR InstName V3
SYMBOL Res 1216 128 R0
SYMATTR InstName R1
SYMATTR Value 100
SYMBOL Voltage 496 192 R180
WINDOW 0 24 96 Left 2
WINDOW 3 -188 201 Left 2
WINDOW 123 0 0 Left 0
WINDOW 39 0 0 Left 0
SYMATTR InstName V4
SYMATTR Value PULSE(0 5 1.67m 1n 1n 10m 20m)
SYMBOL Voltage 736 192 R180
WINDOW 0 24 96 Left 2
WINDOW 3 40 -613 Left 2
WINDOW 123 0 0 Left 0
WINDOW 39 0 0 Left 0
SYMATTR InstName V5
SYMATTR Value PULSE(0 5 15.03m 1n 1n 10m 20m)
SYMBOL Voltage 960 192 R180
WINDOW 0 24 96 Left 2
WINDOW 3 -447 -508 Left 2
WINDOW 123 0 0 Left 0
WINDOW 39 0 0 Left 0
SYMATTR InstName V6
SYMATTR Value PULSE(0 5 8.33m 1n 1n 10m 20m)
SYMBOL Voltage 512 640 R180
WINDOW 0 24 96 Left 2
WINDOW 3 -413 198 Left 2
WINDOW 123 0 0 Left 0
WINDOW 39 0 0 Left 0
SYMATTR InstName V7
SYMATTR Value PULSE(0 5 25.03m 1n 1n 10m 20m)
SYMBOL Voltage 768 624 R180
WINDOW 0 24 96 Left 2
WINDOW 3 -524 597 Left 2
WINDOW 123 0 0 Left 0
WINDOW 39 0 0 Left 0
SYMATTR InstName V8
SYMATTR Value PULSE(0 5 18.33m 1n 1n 10m 20m)
SYMBOL Voltage 992 624 R180
WINDOW 0 24 96 Left 2
WINDOW 3 25 290 Left 2
WINDOW 123 0 0 Left 0
WINDOW 39 0 0 Left 0
SYMATTR InstName V9
SYMATTR Value PULSE(0 5 11.67 1n 1n 10m 20m)
SYMBOL Misc\\SCR 448 272 R180
WINDOW 3 -105 33 Left 2
SYMATTR Value SCR_ST
SYMATTR InstName U7
SYMBOL Misc\\SCR 448 720 R180
SYMATTR InstName U8
SYMATTR Value SCR_ST
SYMBOL Misc\\SCR 688 720 R180
SYMATTR InstName U9
SYMATTR Value SCR_ST
SYMBOL Misc\\SCR 912 736 R180
SYMATTR InstName U10
SYMATTR Value SCR_ST
SYMBOL Misc\\SCR 688 256 R180
SYMATTR InstName U11
SYMATTR Value SCR_ST
SYMBOL Misc\\SCR 912 256 R180
SYMATTR InstName U12
SYMATTR Value SCR_ST
SYMBOL ind 1216 320 R0
SYMATTR InstName L1
SYMATTR Value 1µ
TEXT 72 816 Left 2 !.tran 100m
TEXT -904 784 Left 2 !.inc D:\\Document\\LTspiceXVII\\lib\\st_high-temperature_scr.lib
