Version 4
SHEET 1 892 680
WIRE 176 0 80 0
WIRE 240 0 176 0
WIRE 336 0 240 0
WIRE 416 0 336 0
WIRE 560 0 416 0
WIRE 656 0 560 0
WIRE 80 64 80 0
WIRE 240 64 240 0
WIRE 416 64 416 0
WIRE -208 80 -272 80
WIRE -16 80 -128 80
WIRE 656 96 656 0
WIRE 176 144 176 0
WIRE 176 144 128 144
WIRE -16 160 -16 80
WIRE 80 160 80 128
WIRE 80 160 -16 160
WIRE 288 160 288 144
WIRE 336 160 336 0
WIRE 336 160 288 160
WIRE 464 160 464 144
WIRE 560 160 560 0
WIRE 560 160 464 160
WIRE 80 176 80 160
WIRE 176 176 80 176
WIRE 240 176 240 128
WIRE 368 176 240 176
WIRE 416 176 416 128
WIRE 416 176 384 176
WIRE -272 192 -272 80
WIRE -272 192 -368 192
WIRE -208 192 -272 192
WIRE 240 192 240 176
WIRE 240 192 -128 192
WIRE 416 192 416 176
WIRE 560 192 416 192
WIRE 80 208 80 176
WIRE 240 208 240 192
WIRE 416 208 416 192
WIRE 176 288 176 176
WIRE 176 288 128 288
WIRE -272 304 -272 192
WIRE -208 304 -272 304
WIRE 384 304 384 176
WIRE 384 304 -128 304
WIRE 464 304 464 288
WIRE 560 304 560 192
WIRE 560 304 464 304
WIRE 288 320 288 288
WIRE 368 320 368 176
WIRE 368 320 288 320
WIRE 80 352 80 272
WIRE 240 352 240 272
WIRE 240 352 80 352
WIRE 416 352 416 272
WIRE 416 352 240 352
WIRE 496 352 416 352
WIRE 656 352 656 176
WIRE 656 352 496 352
WIRE 496 400 496 352
FLAG -368 272 0
FLAG 496 400 0
SYMBOL Misc\\SCR 96 128 R180
SYMATTR InstName U1
SYMATTR Value SCR_ST
SYMBOL Misc\\SCR 96 272 R180
SYMATTR InstName U2
SYMATTR Value SCR_ST
SYMBOL Misc\\SCR 256 128 R180
SYMATTR InstName U3
SYMATTR Value SCR_ST
SYMBOL Misc\\SCR 256 272 R180
SYMATTR InstName U4
SYMATTR Value SCR_ST
SYMBOL Misc\\SCR 432 128 R180
SYMATTR InstName U5
SYMATTR Value SCR_ST
SYMBOL Misc\\SCR 432 272 R180
SYMATTR InstName U6
SYMATTR Value SCR_ST
SYMBOL voltage -112 80 R90
WINDOW 0 -32 56 VBottom 2
WINDOW 3 32 56 VTop 2
WINDOW 123 0 0 Left 0
WINDOW 39 0 0 Left 0
SYMATTR InstName V1
SYMATTR Value SINE(0 210 50)
SYMBOL voltage -112 192 R90
WINDOW 0 -32 56 VBottom 2
WINDOW 3 32 56 VTop 2
WINDOW 123 0 0 Left 0
WINDOW 39 0 0 Left 0
SYMATTR InstName V2
SYMATTR Value SINE(0 210 50 0 0 -120)
SYMBOL voltage -112 304 R90
WINDOW 0 -32 56 VBottom 2
WINDOW 3 32 56 VTop 2
WINDOW 123 0 0 Left 0
WINDOW 39 0 0 Left 0
SYMATTR InstName V3
SYMATTR Value SINE(0 210 50 0 0 -240)
SYMBOL voltage 128 48 R0
WINDOW 3 -219 107 Left 2
WINDOW 123 0 0 Left 0
WINDOW 39 0 0 Left 0
SYMATTR Value PULSE(0 5 2.7m 1n 1n 1m 20m)
SYMATTR InstName V4
SYMBOL voltage 128 192 R0
WINDOW 3 -145 202 Left 2
WINDOW 123 0 0 Left 0
WINDOW 39 0 0 Left 0
SYMATTR Value PULSE(0 5 12.7m 1n 1n 1m 20m)
SYMATTR InstName V5
SYMBOL voltage 288 48 R0
WINDOW 3 -30 126 Left 2
WINDOW 123 0 0 Left 0
WINDOW 39 0 0 Left 0
SYMATTR Value PULSE(0 5 9.4m 1n 1n 1m 20m)
SYMATTR InstName V6
SYMBOL voltage 288 192 R0
WINDOW 3 -103 145 Left 2
WINDOW 123 0 0 Left 0
WINDOW 39 0 0 Left 0
SYMATTR Value PULSE(0 5 19.4m 1n 1n 1m 20m)
SYMATTR InstName V7
SYMBOL voltage 464 48 R0
WINDOW 123 0 0 Left 0
WINDOW 39 0 0 Left 0
SYMATTR InstName V8
SYMATTR Value PULSE(0 5 16.1m 1n 1n 1m 20m)
SYMBOL voltage 464 192 R0
WINDOW 123 0 0 Left 0
WINDOW 39 0 0 Left 0
SYMATTR InstName V9
SYMATTR Value PULSE(0 5 7.1m 1n 1n 1m 20m)
SYMBOL res 640 80 R0
SYMATTR InstName R1
SYMATTR Value 20
SYMBOL res -384 176 R0
SYMATTR InstName R2
SYMATTR Value 1
TEXT 72 -80 Left 2 !.inc D:\\Document\\LTspiceXVII\\lib\\st_high-temperature_scr.lib
TEXT -312 376 Left 2 !.tran 40ms
