Version 4
SHEET 1 880 696
WIRE 128 0 0 0
WIRE 352 0 128 0
WIRE 576 0 352 0
WIRE 784 0 656 0
WIRE 128 16 128 0
WIRE 0 64 0 0
WIRE 352 64 352 0
WIRE 128 112 128 96
WIRE 288 112 128 112
WIRE 128 128 128 112
WIRE 128 224 128 192
WIRE 352 256 352 160
WIRE 496 256 352 256
WIRE 640 256 560 256
WIRE 672 256 640 256
WIRE 128 304 128 288
WIRE 208 304 128 304
WIRE 128 336 128 304
WIRE 352 336 352 256
WIRE 640 368 640 256
WIRE -144 384 -320 384
WIRE 0 384 0 144
WIRE 0 384 -80 384
WIRE 64 384 0 384
WIRE 464 384 416 384
WIRE -320 448 -320 384
WIRE 0 448 0 384
WIRE 128 496 128 432
WIRE 208 496 208 304
WIRE 464 496 464 384
WIRE 464 496 208 496
WIRE -320 592 -320 528
WIRE 0 592 0 528
WIRE 0 592 -320 592
WIRE 128 592 128 576
WIRE 128 592 0 592
WIRE 352 592 352 432
WIRE 352 592 128 592
WIRE 640 592 640 448
WIRE 640 592 352 592
WIRE 784 592 784 0
WIRE 784 592 640 592
WIRE 128 656 128 592
FLAG 128 656 0
SYMBOL res -16 48 R0
SYMATTR InstName R1
SYMATTR Value 120k
SYMBOL res 112 0 R0
SYMATTR InstName R3
SYMATTR Value 820
SYMBOL diode 112 128 R0
SYMATTR InstName D1
SYMBOL diode 112 224 R0
SYMATTR InstName D2
SYMBOL npn 64 336 R0
SYMATTR InstName Q1
SYMATTR Value BC547B
SYMBOL npn 288 64 R0
SYMATTR InstName Q2
SYMATTR Value BC547B
SYMBOL res 112 480 R0
SYMATTR InstName R2
SYMATTR Value 22
SYMBOL res -16 432 R0
SYMATTR InstName R4
SYMATTR Value 10k
SYMBOL cap -80 368 R90
WINDOW 0 0 32 VBottom 2
WINDOW 3 32 32 VTop 2
SYMATTR InstName C1
SYMATTR Value 1µ
SYMBOL cap 560 240 R90
WINDOW 0 0 32 VBottom 2
WINDOW 3 32 32 VTop 2
SYMATTR InstName C2
SYMATTR Value 1µ
SYMBOL res 624 352 R0
SYMATTR InstName R5
SYMATTR Value 1k
SYMBOL pnp 416 432 R180
SYMATTR InstName Q3
SYMATTR Value BC557B
SYMBOL voltage -320 432 R0
WINDOW 123 0 0 Left 0
WINDOW 39 0 0 Left 0
SYMATTR InstName V1
SYMATTR Value SINE(0 100 m 1k)
SYMBOL voltage 560 0 R270
WINDOW 0 32 56 VTop 2
WINDOW 3 -32 56 VBottom 2
WINDOW 123 0 0 Left 0
WINDOW 39 0 0 Left 0
SYMATTR InstName V2
SYMATTR Value 8
TEXT -354 680 Left 2 !.tran 1
