Version 4
SHEET 1 1320 680
WIRE 160 0 64 0
WIRE 400 0 240 0
WIRE 528 0 400 0
WIRE 672 0 592 0
WIRE 400 96 400 0
WIRE 64 112 64 0
WIRE 672 112 672 0
WIRE 336 144 240 144
WIRE 240 192 240 144
WIRE 64 304 64 192
WIRE 176 304 64 304
WIRE 240 304 240 272
WIRE 240 304 176 304
WIRE 400 304 400 192
WIRE 400 304 240 304
WIRE 672 304 672 192
WIRE 672 304 400 304
WIRE 176 384 176 304
FLAG 176 384 0
SYMBOL voltage 64 96 R0
WINDOW 123 0 0 Left 0
WINDOW 39 0 0 Left 0
SYMATTR InstName V1
SYMATTR Value 200
SYMBOL ind 144 16 R270
WINDOW 0 32 56 VTop 2
WINDOW 3 5 56 VBottom 2
SYMATTR InstName L1
SYMATTR Value 100m
SYMBOL diode 528 16 R270
WINDOW 0 32 32 VTop 2
WINDOW 3 0 32 VBottom 2
SYMATTR InstName D1
SYMATTR Value 1N4148
SYMBOL res 656 96 R0
SYMATTR InstName R1
SYMATTR Value 10
SYMBOL npn 336 192 M180
SYMATTR InstName Q1
SYMATTR Value 2N2222
SYMBOL voltage 240 176 R0
WINDOW 123 0 0 Left 0
WINDOW 39 0 0 Left 0
SYMATTR InstName V2
SYMATTR Value PULSE(0 5 0 1n 1n 10m 20m)
TEXT 30 314 Left 2 !.tran 0.1
