Version 4
SHEET 1 880 680
WIRE 368 32 240 32
WIRE 112 64 0 64
WIRE 224 64 208 64
WIRE 240 64 240 32
WIRE 240 64 224 64
WIRE 0 96 0 64
WIRE 224 96 224 64
WIRE 160 144 160 128
WIRE 0 240 0 176
WIRE 112 240 0 240
WIRE 160 240 160 224
WIRE 160 240 112 240
WIRE 224 240 224 160
WIRE 224 240 160 240
WIRE 368 240 368 192
WIRE 368 240 224 240
WIRE 112 256 112 240
FLAG 112 256 0
SYMBOL voltage 0 80 R0
WINDOW 123 0 0 Left 0
WINDOW 39 0 0 Left 0
SYMATTR InstName V1
SYMATTR Value 100
SYMBOL res 352 96 R0
SYMATTR InstName R1
SYMATTR Value 10
SYMBOL npn 112 128 R270
SYMATTR InstName Q1
SYMATTR Value 2N2222
SYMBOL voltage 160 128 R0
WINDOW 123 0 0 Left 0
WINDOW 39 0 0 Left 0
SYMATTR InstName V2
SYMATTR Value PULSE(0 5 0 1n 1n 10m 20m)
SYMBOL diode 240 160 R180
WINDOW 0 24 64 Left 2
WINDOW 3 24 0 Left 2
SYMATTR InstName D1
SYMBOL ind 352 16 R0
SYMATTR InstName L1
SYMATTR Value 10
TEXT -32 264 Left 2 !.tran 0.1
