Version 4
SHEET 1 1740 1112
WIRE 448 -16 432 -16
WIRE 672 -16 448 -16
WIRE 688 -16 672 -16
WIRE 896 -16 688 -16
WIRE 912 -16 896 -16
WIRE 1232 -16 912 -16
WIRE 496 32 448 -16
WIRE 736 32 688 -16
WIRE 960 32 912 -16
WIRE 672 128 672 -16
WIRE 736 128 736 112
WIRE 736 128 720 128
WIRE 896 128 896 -16
WIRE 960 128 960 112
WIRE 960 128 944 128
WIRE 432 144 432 -16
WIRE 496 144 496 112
WIRE 496 144 480 144
WIRE 432 224 432 208
WIRE 432 224 64 224
WIRE 1232 240 1232 -16
WIRE 672 256 672 192
WIRE 672 256 192 256
WIRE 896 288 896 192
WIRE 896 288 320 288
WIRE 64 352 64 224
WIRE 192 352 192 256
WIRE 320 352 320 288
WIRE 64 496 64 432
WIRE 192 496 192 432
WIRE 192 496 64 496
WIRE 320 496 320 432
WIRE 320 496 192 496
WIRE 432 496 432 224
WIRE 464 496 432 496
WIRE 672 496 672 256
WIRE 704 496 672 496
WIRE 896 496 896 288
WIRE 928 496 896 496
WIRE 192 528 192 496
WIRE 768 528 704 496
WIRE 992 528 928 496
WIRE 512 544 464 496
WIRE 432 656 432 496
WIRE 512 656 512 624
WIRE 512 656 480 656
WIRE 672 656 672 496
WIRE 768 656 768 608
WIRE 768 656 720 656
WIRE 896 672 896 496
WIRE 992 672 992 608
WIRE 992 672 944 672
WIRE 432 768 432 720
WIRE 672 768 672 720
WIRE 672 768 432 768
WIRE 896 768 896 736
WIRE 896 768 672 768
WIRE 1104 768 896 768
WIRE 1232 768 1232 320
WIRE 1232 768 1104 768
WIRE 1104 816 1104 768
FLAG 1104 816 0
FLAG 192 528 0
SYMBOL voltage 64 336 R0
WINDOW 3 -251 -54 Left 2
SYMATTR InstName V1
SYMATTR Value SINE(0 220 50)
SYMBOL voltage 192 336 R0
WINDOW 3 -471 -12 Left 2
SYMATTR InstName V2
SYMATTR Value SINE(0 220 50 0 0 120)
SYMBOL voltage 320 336 R0
WINDOW 3 -596 35 Left 2
SYMATTR InstName V3
SYMATTR Value SINE(0 220 50 0 0 240)
SYMBOL Res 1216 224 R0
SYMATTR InstName R1
SYMATTR Value 100
SYMBOL Voltage 496 128 R180
WINDOW 0 24 96 Left 2
WINDOW 3 -1212 115 Left 2
WINDOW 123 0 0 Left 0
WINDOW 39 0 0 Left 0
SYMATTR InstName V4
SYMATTR Value PULSE(0 5 1.67m 1n 1n 10m 20m)
SYMBOL Voltage 736 128 R180
WINDOW 0 24 96 Left 2
WINDOW 3 -973 25 Left 2
WINDOW 123 0 0 Left 0
WINDOW 39 0 0 Left 0
SYMATTR InstName V5
SYMATTR Value PULSE(0 5 15.03m 1n 1n 10m 20m)
SYMBOL Voltage 960 128 R180
WINDOW 0 24 96 Left 2
WINDOW 3 -732 -65 Left 2
WINDOW 123 0 0 Left 0
WINDOW 39 0 0 Left 0
SYMATTR InstName V6
SYMATTR Value PULSE(0 5 8.33m 1n 1n 10m 20m)
SYMBOL Voltage 512 640 R180
WINDOW 0 24 96 Left 2
WINDOW 3 -1219 491 Left 2
WINDOW 123 0 0 Left 0
WINDOW 39 0 0 Left 0
SYMATTR InstName V7
SYMATTR Value PULSE(0 5 25.03m 1n 1n 10m 20m)
SYMBOL Voltage 768 624 R180
WINDOW 0 24 96 Left 2
WINDOW 3 -964 392 Left 2
WINDOW 123 0 0 Left 0
WINDOW 39 0 0 Left 0
SYMATTR InstName V8
SYMATTR Value PULSE(0 5 18.33m 1n 1n 10m 20m)
SYMBOL Voltage 992 624 R180
WINDOW 0 24 96 Left 2
WINDOW 3 -682 566 Left 2
WINDOW 123 0 0 Left 0
WINDOW 39 0 0 Left 0
SYMATTR InstName V9
SYMATTR Value PULSE(0 11.67 5m 1n 1n 10m 20m)
SYMBOL Misc\\SCR 448 208 R180
WINDOW 3 -105 33 Left 2
SYMATTR InstName U7
SYMATTR Value SCR_ST
SYMBOL Misc\\SCR 448 720 R180
SYMATTR InstName U8
SYMATTR Value SCR_ST
SYMBOL Misc\\SCR 688 720 R180
SYMATTR InstName U9
SYMATTR Value SCR_ST
SYMBOL Misc\\SCR 912 736 R180
SYMATTR InstName U10
SYMATTR Value SCR_ST
SYMBOL Misc\\SCR 688 192 R180
SYMATTR InstName U11
SYMATTR Value SCR_ST
SYMBOL Misc\\SCR 912 192 R180
SYMATTR InstName U12
SYMATTR Value SCR_ST
TEXT 72 816 Left 2 !.tran 100m
TEXT -416 1096 Left 2 !.inc C:\\Users\\Jayaraj Chippada\\OneDrive\\Pictures\\Documents\\LTspiceXVII\\lib\\st_high-temperature_scr_pspice\\st_high-temperature_scr.lib
