Version 4
SHEET 1 1776 680
WIRE 320 0 256 0
WIRE 496 0 384 0
WIRE 528 0 496 0
WIRE 416 48 384 48
WIRE 496 48 496 0
WIRE 176 128 176 0
WIRE 320 128 256 128
WIRE 464 128 384 128
WIRE 528 128 528 0
WIRE 528 128 464 128
WIRE 768 128 528 128
WIRE 384 192 384 176
WIRE 464 192 464 128
WIRE 768 240 768 128
WIRE 176 272 176 128
WIRE 192 272 176 272
WIRE 320 272 272 272
WIRE 480 272 384 272
WIRE 528 272 528 128
WIRE 528 272 480 272
WIRE 400 320 384 320
WIRE 480 320 480 272
WIRE 176 432 176 272
WIRE 240 432 176 432
WIRE 768 432 768 320
WIRE 768 432 240 432
WIRE 240 464 240 432
FLAG 240 464 0
SYMBOL Misc\\SCR 320 16 R270
WINDOW 3 -222 71 VRight 2
SYMATTR Value SCR_ST
SYMATTR InstName U1
SYMBOL Misc\\SCR 320 144 R270
WINDOW 3 49 91 VRight 2
SYMATTR Value SCR_ST
SYMATTR InstName U2
SYMBOL Misc\\SCR 320 288 R270
WINDOW 3 -113 84 VRight 2
SYMATTR Value SCR_ST
SYMATTR InstName U3
SYMBOL voltage 384 320 R270
WINDOW 0 32 56 VTop 2
WINDOW 3 0 336 VBottom 2
WINDOW 123 0 0 Left 0
WINDOW 39 0 0 Left 0
SYMATTR InstName V2
SYMATTR Value PULSE(0 5 9.17m 1n 1n 1m 20m)
SYMBOL voltage 368 192 R270
WINDOW 0 32 56 VTop 2
WINDOW 3 16 379 VBottom 2
WINDOW 123 0 0 Left 0
WINDOW 39 0 0 Left 0
SYMATTR InstName V3
SYMATTR Value PULSE(0 5 15.84m 1n 1n 1m 20m)
SYMBOL res 752 224 R0
SYMATTR InstName R1
SYMATTR Value 2
SYMBOL voltage 272 0 R90
WINDOW 0 -32 56 VBottom 2
WINDOW 3 -15 229 VTop 2
WINDOW 123 0 0 Left 0
WINDOW 39 0 0 Left 0
SYMATTR InstName V1
SYMATTR Value SINE(0 230 50 0 0 0)
SYMBOL voltage 272 128 R90
WINDOW 0 -32 56 VBottom 2
WINDOW 3 -13 242 VTop 2
WINDOW 123 0 0 Left 0
WINDOW 39 0 0 Left 0
SYMATTR InstName V5
SYMATTR Value SINE(0 230 50 0 0 120)
SYMBOL voltage 288 272 R90
WINDOW 0 -32 56 VBottom 2
WINDOW 3 -19 265 VTop 2
WINDOW 123 0 0 Left 0
WINDOW 39 0 0 Left 0
SYMATTR InstName V6
SYMATTR Value SINE(0 230 50 0 0 240)
SYMBOL voltage 400 48 R270
WINDOW 0 32 56 VTop 2
WINDOW 3 15 355 VBottom 2
WINDOW 123 0 0 Left 0
WINDOW 39 0 0 Left 0
SYMATTR InstName V4
SYMATTR Value PULSE(0 5 2.5m 1n 1n 1m 20m)
TEXT 40 560 Left 2 !.inc C:\\Users\\Jayaraj Chippada\\OneDrive\\Pictures\\Documents\\LTspiceXVII\\lib\\st_high-temperature_scr_pspice\\st_high-temperature_scr.lib
TEXT 80 488 Left 2 !.tran 0.1
