Version 4
SHEET 1 1776 680
WIRE 384 0 0 0
WIRE 560 0 448 0
WIRE 736 0 560 0
WIRE 480 48 448 48
WIRE 560 48 560 0
WIRE -80 128 -80 0
WIRE 384 128 0 128
WIRE 528 128 448 128
WIRE 736 128 736 0
WIRE 736 128 528 128
WIRE 976 128 736 128
WIRE 448 192 448 176
WIRE 528 192 528 128
WIRE 976 240 976 128
WIRE -80 272 -80 128
WIRE -64 272 -80 272
WIRE 384 272 16 272
WIRE 544 272 448 272
WIRE 736 272 736 128
WIRE 736 272 544 272
WIRE 464 320 448 320
WIRE 544 320 544 272
WIRE -80 432 -80 272
WIRE 976 432 976 320
WIRE 976 432 -80 432
FLAG -80 432 0
SYMBOL Misc\\SCR 384 16 R270
SYMATTR InstName U1
SYMATTR Value SCR_ST
SYMBOL Misc\\SCR 384 144 R270
SYMATTR InstName U2
SYMATTR Value SCR_ST
SYMBOL Misc\\SCR 384 288 R270
SYMATTR InstName U3
SYMATTR Value SCR_ST
SYMBOL voltage 448 320 R270
WINDOW 0 32 56 VTop 2
WINDOW 3 -32 56 VBottom 2
WINDOW 123 0 0 Left 0
WINDOW 39 0 0 Left 0
SYMATTR InstName V2
SYMATTR Value PULSE(0 5 8.35m 1n 1n 1m 20m)
SYMBOL voltage 432 192 R270
WINDOW 0 32 56 VTop 2
WINDOW 3 35 323 VBottom 2
WINDOW 123 0 0 Left 0
WINDOW 39 0 0 Left 0
SYMATTR InstName V3
SYMATTR Value PULSE(0 5 15.03m 1n 1n 1m 20m)
SYMBOL res 960 224 R0
SYMATTR InstName R1
SYMATTR Value 2
SYMBOL voltage 16 0 R90
WINDOW 0 -32 56 VBottom 2
WINDOW 3 32 56 VTop 2
WINDOW 123 0 0 Left 0
WINDOW 39 0 0 Left 0
SYMATTR InstName V1
SYMATTR Value SINE(0 230 50 0 0 0)
SYMBOL voltage 16 128 R90
WINDOW 0 -32 56 VBottom 2
WINDOW 3 32 56 VTop 2
WINDOW 123 0 0 Left 0
WINDOW 39 0 0 Left 0
SYMATTR InstName V5
SYMATTR Value SINE(0 230 50 0 0 120)
SYMBOL voltage 32 272 R90
WINDOW 0 -32 56 VBottom 2
WINDOW 3 32 56 VTop 2
WINDOW 123 0 0 Left 0
WINDOW 39 0 0 Left 0
SYMATTR InstName V6
SYMATTR Value SINE(0 230 50 0 0 240)
SYMBOL voltage 464 48 R270
WINDOW 0 32 56 VTop 2
WINDOW 3 115 213 VBottom 2
WINDOW 123 0 0 Left 0
WINDOW 39 0 0 Left 0
SYMATTR InstName V4
SYMATTR Value PULSE(0 5 1.67m 1n 1n 1m 20m)
TEXT -176 616 Left 2 !.inc C:\\Users\\Jayaraj Chippada\\OneDrive\\Pictures\\Documents\\LTspiceXVII\\lib\\st_high-temperature_scr_pspice\\st_high-temperature_scr.lib
TEXT -176 488 Left 2 !.tran 0.1
