Version 4
SHEET 1 1064 904
WIRE -160 112 -320 112
WIRE 160 112 -80 112
WIRE 304 112 224 112
WIRE 384 112 304 112
WIRE 224 192 224 160
WIRE 304 192 304 112
WIRE -320 320 -320 112
WIRE -160 320 -320 320
WIRE 160 320 -80 320
WIRE 304 320 224 320
WIRE 384 320 384 112
WIRE 384 320 304 320
WIRE 544 320 384 320
WIRE 224 400 224 368
WIRE 304 400 304 320
WIRE 544 496 544 320
WIRE -320 528 -320 320
WIRE -160 528 -320 528
WIRE 160 528 -80 528
WIRE 304 528 224 528
WIRE 384 528 384 320
WIRE 384 528 304 528
WIRE 224 608 224 576
WIRE 304 608 304 528
WIRE -320 688 -320 528
WIRE -48 688 -320 688
WIRE 544 688 544 576
WIRE 544 688 -48 688
WIRE -48 736 -48 688
FLAG -48 736 0
SYMBOL Misc\\SCR 160 128 R270
SYMATTR InstName U1
SYMATTR Value SCR_ST
SYMBOL Misc\\SCR 160 336 R270
SYMATTR InstName U2
SYMATTR Value SCR_ST
SYMBOL Misc\\SCR 160 544 R270
SYMATTR InstName U3
SYMATTR Value SCR_ST
SYMBOL voltage -64 112 R90
WINDOW 0 -32 56 VBottom 2
WINDOW 3 32 56 VTop 2
WINDOW 123 0 0 Left 0
WINDOW 39 0 0 Left 0
SYMATTR InstName V1
SYMATTR Value SINE(0 230 50 0 0 0)
SYMBOL voltage -64 320 R90
WINDOW 0 -32 56 VBottom 2
WINDOW 3 32 56 VTop 2
WINDOW 123 0 0 Left 0
WINDOW 39 0 0 Left 0
SYMATTR InstName V2
SYMATTR Value SINE(0 230 50 0 0 120)
SYMBOL voltage -64 528 R90
WINDOW 0 -32 56 VBottom 2
WINDOW 3 32 56 VTop 2
WINDOW 123 0 0 Left 0
WINDOW 39 0 0 Left 0
SYMATTR InstName V3
SYMATTR Value SINE(0 230 50 0 0 240)
SYMBOL res 528 480 R0
SYMATTR InstName R1
SYMATTR Value 10
SYMBOL voltage 208 192 R270
WINDOW 0 32 56 VTop 2
WINDOW 3 230 78 VBottom 2
WINDOW 123 0 0 Left 0
WINDOW 39 0 0 Left 0
SYMATTR InstName V4
SYMATTR Value PULSE(0 5 2.67m 1n 1n 1m 20m)
SYMBOL voltage 208 400 R270
WINDOW 0 32 56 VTop 2
WINDOW 3 141 356 VBottom 2
WINDOW 123 0 0 Left 0
WINDOW 39 0 0 Left 0
SYMATTR InstName V5
SYMATTR Value PULSE(0 5 10m 1n 1n 1m 20m)
SYMBOL voltage 208 608 R270
WINDOW 0 32 56 VTop 2
WINDOW 3 -32 56 VBottom 2
WINDOW 123 0 0 Left 0
WINDOW 39 0 0 Left 0
SYMATTR InstName V6
SYMATTR Value PULSE(0 5 16.7m 1n 1n 1m 20m)
TEXT -600 864 Left 2 !.inc C:\\Users\\Jayaraj Chippada\\OneDrive\\Pictures\\Documents\\LTspiceXVII\\lib\\st_high-temperature_scr_pspice\\st_high-temperature_scr.lib
TEXT -600 888 Left 2 !.tran 0.6
