Version 4
SHEET 1 880 680
WIRE 320 32 192 32
WIRE 400 32 320 32
WIRE 528 32 400 32
WIRE 592 32 528 32
WIRE 48 48 -80 48
WIRE 192 64 192 32
WIRE 400 64 400 32
WIRE 592 80 592 32
WIRE -80 128 -80 48
WIRE 320 144 320 32
WIRE 320 144 240 144
WIRE 528 144 528 32
WIRE 528 144 448 144
WIRE 48 160 48 48
WIRE 192 160 192 128
WIRE 192 160 48 160
WIRE 400 192 400 128
WIRE 512 192 400 192
WIRE 592 192 592 160
WIRE 400 208 400 192
WIRE 400 208 48 208
WIRE 192 224 192 160
WIRE 192 224 160 224
WIRE 400 224 400 208
WIRE -80 256 -80 208
WIRE 48 256 48 208
WIRE 48 256 -80 256
WIRE 160 304 160 224
WIRE 240 304 160 304
WIRE 512 304 512 192
WIRE 512 304 448 304
WIRE 192 336 192 288
WIRE 400 336 400 288
WIRE 400 336 192 336
WIRE 592 336 592 272
WIRE 592 336 400 336
FLAG 592 336 0
SYMBOL Misc\\SCR 208 128 R180
SYMATTR InstName U1
SYMATTR Value SCR_ST
SYMBOL Misc\\SCR 208 288 R180
SYMATTR InstName U2
SYMATTR Value SCR_ST
SYMBOL Misc\\SCR 416 128 R180
SYMATTR InstName U3
SYMATTR Value SCR_ST
SYMBOL Misc\\SCR 416 288 R180
SYMATTR InstName U4
SYMATTR Value SCR_ST
SYMBOL voltage -80 112 R0
WINDOW 123 0 0 Left 0
WINDOW 39 0 0 Left 0
SYMATTR InstName V1
SYMATTR Value SINE(0 230 50)
SYMBOL voltage 240 48 R0
WINDOW 3 -336 -28 Left 2
WINDOW 123 0 0 Left 0
WINDOW 39 0 0 Left 0
SYMATTR InstName V2
SYMATTR Value PULSE(0 5 2.5ms 1n 1n 1m 20m)
SYMBOL voltage 448 48 R0
WINDOW 3 239 -37 Right 2
WINDOW 123 0 0 Left 0
WINDOW 39 0 0 Left 0
SYMATTR InstName V3
SYMATTR Value PULSE(0 5 12.5m 1n 1n 1m 20m)
SYMBOL voltage 240 208 R0
WINDOW 3 -259 117 Left 2
WINDOW 123 0 0 Left 0
WINDOW 39 0 0 Left 0
SYMATTR InstName V4
SYMATTR Value PULSE(0 5 12.5ms 1n 1n 1m 20m)
SYMBOL voltage 448 208 R0
WINDOW 123 0 0 Left 0
WINDOW 39 0 0 Left 0
SYMATTR InstName V5
SYMATTR Value PULSE(0 5 2.5ms 1n 1n 1m 20m)
SYMBOL res 576 176 R0
SYMATTR InstName R1
SYMATTR Value 5
SYMBOL ind 576 64 R0
SYMATTR InstName L1
SYMATTR Value 2m
TEXT -56 -24 Left 2 !.inc D:\\Document\\LTspiceXVII\\lib\\st_high-temperature_scr.lib
TEXT -114 346 Left 2 !.tran 60ms
