Version 4
SHEET 1 1336 680
WIRE 224 0 80 0
WIRE 384 0 288 0
WIRE 528 0 384 0
WIRE 608 0 528 0
WIRE 288 80 288 48
WIRE 528 96 528 0
WIRE 608 96 608 80
WIRE 80 128 80 0
WIRE 288 192 288 160
WIRE 384 192 384 0
WIRE 384 192 288 192
WIRE 80 272 80 208
WIRE 256 272 80 272
WIRE 528 272 528 160
WIRE 528 272 256 272
WIRE 608 272 608 256
WIRE 608 272 528 272
WIRE 256 304 256 272
FLAG 256 304 0
SYMBOL voltage 80 112 R0
WINDOW 3 -236 60 Left 2
WINDOW 123 0 0 Left 0
WINDOW 39 0 0 Left 0
SYMATTR Value SINE(0 220 50)
SYMATTR InstName V1
SYMBOL voltage 288 64 R0
WINDOW 3 -191 156 Left 2
WINDOW 123 0 0 Left 0
WINDOW 39 0 0 Left 0
SYMATTR Value PULSE(0 5 2.5m 1n 1n 1m 20m)
SYMATTR InstName V2
SYMBOL res 592 -16 R0
SYMATTR InstName R1
SYMATTR Value 10
SYMBOL Misc\\SCR 224 16 R270
SYMATTR InstName U1
SYMATTR Value SCR_ST
SYMBOL ind 592 80 R0
SYMATTR InstName L1
SYMATTR Value 0.0318
SYMBOL voltage 608 160 R0
WINDOW 123 0 0 Left 0
WINDOW 39 0 0 Left 0
SYMATTR InstName V3
SYMATTR Value 100
SYMBOL diode 544 160 R180
WINDOW 0 24 64 Left 2
WINDOW 3 24 0 Left 2
SYMATTR InstName D1
TEXT -160 280 Left 2 !.tran 60m
TEXT 392 -120 Left 2 !.inc D:\\Document\\LTspiceXVII\\lib\\st_high-temperature_scr.lib
